#Rem monkeydoc Module junglegui.core
	This module contains the base core components of Jungle gui
#End

Import junglegui
Import designtimeinfo
Import econtrolstatus
Import guiapp
Import guicolor
Import guiexception
Import guiinterfaces
Import guivector2d
Import padding
Import renderer
Import viewportstack
Import helperfunctions
Import scaledscrissor
Import msglistener
Import mousepointer

#REFLECTION_FILTER+="${MODPATH}"

#Rem monkeydoc 
	this is the base class of a JungleGui control
#End
Class Control Implements DesignTimeInfo

	Public
	
	Method PropertiesDescriptor:List<DTProperty>()
		Local list:= New List<DTProperty>
		Local prop:= New DTProperty("Position", GetClass(Self.Position))
		list.AddLast(prop)
		prop.Validate(Self)
	End
	
	#Rem monkeydoc 
		This property contains the name of the control. Controls can have a Name that can be used for debugging purposes.
	#End
	Method Name:String() Property
		Return _name
	End
	
	Method Name:Void(value:String) Property
		_name = value
	End
	
	#Rem monkeydoc 
		This method the base control constructor.
	#End
	Method New()
		_GuiVector2D.SetNotifyControl(Self, eMsgKinds.MOVED)
		_drawingSize.SetNotifyControl(Self, eMsgKinds.RESIZED)
	End
	
	#Rem monkeydoc 
		This read-only property returns a GuiVector2D that contains the X and Y coordinates where the control is placed.
		Remember that this position is relative to the control container.
	#End
	Method Position:ControlGuiVector2D() Property
		Return _GuiVector2D
	end

	'summary: this is the location of the control in the parent container control
	#REM monkeydoc
		This read-only property returns a GuiVector2D that contains the X and Y size of the control.
		The X component represents the control Width, and the Y components represents the control Height
	#END
	Method Size:ControlGuiVector2D() Property
		Return _drawingSize
	end

	
	#Rem monkeydoc 
		This property returns the Background Color of this control. It's returned in the form of a GuiColor instance.
		Most controls have a default BackgroundColor that is defined into SystemColors, so modifying it in one control, could make the color to be modified also on any other control using the same color for rendering.
		If you want to modify the backgroun color of a control without affecting other colors that could be using the same BackgroundColor, you can set it to a clone:
		`myControl.BackgroundColor = myControl.BackgroundColor.Clone()`		
	#End
	Method BackgroundColor:GuiColor() Property 
		Return _backgroundColor
	End
	
	'This has to be overriden in control containers
	
	Method BackgroundColor:GuiColor(value:GuiColor) Property
		If value <> Null Then
			_backgroundColor = value 
		Else
			Throw New JungleGuiException("Background color can't be set to null", Self)
		EndIf
		Return _backgroundColor 
	End

	#Rem monkeydoc 
	This property returns the ForeColor of this control.
	Most controls have a default ForeColor that is defined into SystemColors, so modifying it in one control, could make the color to be modified also on any other control using the same color for rendering.
	#End
	Method ForeColor:GuiColor() Property 
	#if TARGET="html5" 
		Return _htmlforecolor  '.Clone() 'SetColor(255,255,255)
	#end
		Return _foreColor
	end
	
	Method ForeColor:GuiColor(value:GuiColor) Property
		if value<>null Then 
			_foreColor = value 
		Else
			Throw New JungleGuiException("Fore color can't be set to null",Self)
		EndIf
		Return _foreColor
	End

	#Rem monkeydoc 
	This Render method is automatically called when the control needs to be drawn on the screen.
	The Gui engine will determine if a control needs to be drawn or not depending of its placement on screen, device and containers visibility.
	#End
	Method Render:Void()
		Local color:Float[] = GetColor()
		Self.BackgroundColor.Activate()
		'DrawRect(_gui.currentRenderPos.X, _gui.currentRenderPos.X, Size.X, Size.Y)		
		DrawRect(UnsafeRenderPosition.X, UnsafeRenderPosition.Y, Size.X, Size.Y)
		SetColor(color[0], color[1], color[2])
	End
	
	#Rem monkeydoc 
		<font color=red><b>Advanced usage only</b></font><br>This method is internally used to build and control the internal status changes messaging system of the Gui system.
	#End	
	Method Msg(msg:BoxedMsg)
		If Not _gui Then Return
		If _parentControl <> Null Then
			Control(_parentControl).Msg(msg)
		EndIf
		NotifyMsgListeners(msg)
		If msg.sender = Self And msg.status = eMsgStatus.Sent Then
			Dispatch(msg)
		EndIf
		
	End
	
	#Rem monkeydoc
		This returns the Gui engine where this control is running.
	#END
	Method GetGui:Gui()
		Return _gui
	End
	
	#Rem monkeydoc
		 This method TRUE if this control is a Top level control (a window)
		 A Top Level Control is a control that can't be set as a child of another control. As instance, a window is a container of controls, but can't be set as a child of other controls.
		 The most typical Top Level Controls are a [[Form]] and a [[WindowsFrame]]
	 #END
	Method IsTopLevelControl?()
		Return false
	End
	
	#Rem monkeydoc
		This returns TRUE if this control is a control container that can contain child controls. Otherwise, this method returns False.
	#End
	Method IsContainer?()
		Return ContainerControl(Self) <> Null
	End

	
	Method DeviceToControlX:Float(x:float)
		Return x - UnsafeRenderPosition.X
	End
	
	Method DeviceToControlY:Float(y:Float)
		Return y - UnsafeRenderPosition.Y
	End
	
	Method ControlToDeviceX:Float(x:Float)
		Return x + UnsafeRenderPosition.X
	End
	
	Method ControlToDeviceY:Float(y:Float)
		Return y + UnsafeRenderPosition.Y
	End
	
	
	#Rem monkeydoc
		This get/set property can be used to set the container of a given control.
		As instance, to place a button in a Form or a Panel, you need to set the Parent property of the button to the desired container.
		Notice that any TopLevelControl will always have a null parent as those controls can't be children of other controls.
	#End
	Method Parent:ContainerControl() Property
		Return _parentControl
	End
  	
	#Rem monkeydoc
		 This get/set property can be used to set the container of a given control.
	 #END
	Method Parent:ContainerControl(parentControl:ContainerControl) Property
		If parentControl = Null And _parentControl = Null Then Return
		If _parentControl = parentControl Then
			If _gui <> parentControl._gui Then
				_gui = parentControl._gui
			Else
				Return
			EndIf
		EndIf
		If _parentControl <> Null Then
			_parentControl.controls.RemoveEach(Self)
			'Msg(Self,New EventArgs(eMsgKinds.PARENT_REMOVED))
			Msg(New BoxedMsg(Self, New EventArgs(eMsgKinds.PARENT_REMOVED)))
			_parentControl.Msg(New BoxedMsg(Self, New EventArgs(eMsgKinds.CHILD_REMOVED)))
		EndIf
		If parentControl <> Null Then
 			_parentControl = parentControl
 			parentControl.controls.AddLast(Self)
			'Msg(Self,New EventArgs(eMsgKinds.PARENT_SET))
 			Msg(New BoxedMsg(Self, New EventArgs(eMsgKinds.PARENT_SET)))
			_parentControl.Msg(New BoxedMsg(Self, New EventArgs(eMsgKinds.CHILD_ADDED)))
 			_gui = parentControl._gui
		Else
 			_gui = Null
		EndIf
	End
	
	
	#Rem monkeydoc
		This method brings the control to the front of the Z-Order
	 #END
	Method BringToFront()
		if _parentControl = null Then Return
		_parentControl.controls.RemoveEach(Self)
		_parentControl.controls.AddLast(Self)
		Msg(New BoxedMsg(Self, New EventArgs(eMsgKinds.BRING_TO_FRONT)))
	End
	
	#Rem monkeydoc
		This method sends the control to the back of the Z-Order
	 #END
	Method SendToBack()
		if _parentControl = null Then Return
		_parentControl.controls.RemoveEach(Self)
		_parentControl.controls.AddFirst(Self)
		Msg(New BoxedMsg(Self, New EventArgs(eMsgKinds.SEND_TO_BACK)))
	End
	
	#Rem monkeydoc
		This method will return the Top Level Container where this control is located.
		Notice that this Method can be slightly slow on complex Parent/Child control's chain, so it is advised to use with caution.
	#end
	Method GetTopLevelContainer:TopLevelControl()
		Local p:Control = Self
		While p.Parent <> Null
			p = p.Parent
		Wend
		Return TopLevelControl(p)
	End
	
	#Rem monkeydoc
		This method will clear all resources used by the control and its child controls. This is automatically called by the Gui system when the control needs to "die".
	 #END
	Method Dispose()
		Parent = null
		_parentControl = null
		_GuiVector2D.SetNotifyControl(null, 0)
		_drawingSize.SetNotifyControl(null, 0)
		_gui = Null
	End
	
	#Rem monkeydoc
		This method returns the internal GuiVector2D that contains the latest known render position on screen device.
		Calculating the exact render position of a control on screen can be a slow operation, so it's done just once per control render.
		The results of this calculation is stored internaly, and can be inspected by using this method.
		While this information is useful to perform quick render operations, modifying this vector values can cause rendering artifacts.<br>To use a safer way to manipulate this vector see [[LocationInDevice]]
	 #END
	Method UnsafeRenderPosition:GuiVector2D()
	
		Return _lastRenderPos '_gui.currentRenderPos
	
	End
	
		
	#Rem monkeydoc
		This is automatically called by the Gui engine when the control needs to be updated and process its internal logic.
		This method should only be overriden when designing controls that need to update or calculate its internal logic on every "OnUpdate" of the Mojo App.
		This is considered a low level method reserved for controls design. It is advised to not use it to control program flow or logic, as its internal usage may be modified in future JungleGui versions.
	 #END
	Method Update()
		If listeners <> Null And listeners.IsEmpty = False
		
			For Local listener:MsgListener = EachIn listeners
				listener.Update()
				
			Next
		EndIf
	End

	#Rem monkeydoc
		This is a Get/Set property that indicates if a control is navigable using the TAB key (keyboard navigation)
	#END
	Method TabStop:Bool() Property
		Return _tabStop
	End
	
	Method TabStop:Bool(value:Bool) Property
		_tabStop = value
		Return _tabStop
	end
	
	#Rem monkeydoc 
		This method will bring the Gui focus to this control.
	#END
	Method AssignFocus()
		if Not _gui Then return
		if _gui._focusedControl = Self Return
		If _gui._focusedControl <> Null Then
			_gui._focusedControl.Msg(New BoxedMsg(_gui._focusedControl, New EventArgs(eMsgKinds.LOST_FOCUS)))
		EndIf
		_gui._focusedControl = self
		Msg(New BoxedMsg(Self, New EventArgs(eMsgKinds.GOT_FOCUS)))
	End
	
	#Rem monkeydoc 
		This method will give the focus to the next control that can take it. It has the same effect that pressing the TAB key on keyboard navigation.
	#END
	Method FocusNext()
		if Parent = null Then return	'Unparented controls can't do focus next.
		Local currentheight = 16000000 'self.Position.Y-1
		Local currentWidth = 16000000
		Local focused:Control = null
		For Local c:Control = EachIn Self.Parent.controls
			if c.Position.Y<Self.Position.Y Then Continue
			if c = Self Then Continue
			if c.TabStop = False Then Continue
			if c.Position.Y<currentheight Then
				Local doSet:Bool = false
				if c.Position.Y<>Position.Y Then 
					doSet = true
				ElseIf c.Position.X>=Position.X 
					doSet = true
				EndIf
				if doSet then
					focused = c
					currentheight = c.Position.Y 
					currentWidth = c.Position.X
				endif
			ElseIf c.Position.Y=currentheight Then
				if c.Position.X<currentWidth Then
					Local doSet:Bool = false
					if (c.Position.Y <> Position.Y) Then 
						doSet = true
					ElseIf (c.Position.X>=Position.X)
						doSet = true
					endif
					if doSet Then
						focused = c
						currentWidth = 16000000
					EndIf
				EndIf
			EndIf
		Next
		if focused = null Then 
			if Parent <>null Then 
				Parent.AssignFocus()	'Era el último mohicano, volvemos al parent y escojemos el siguiente tío.
				Parent.FocusNext()
			Else
				_NavigationGotFocus()		
			endif
		ElseIf focused <> Self Then
			focused._NavigationGotFocus()
		Else
			_NavigationGotFocus()
		EndIf
	End

	#Rem monkeydoc 
		This will return True for all controls that are based on a graphical interface such as buttons, labels, etc.
		Non graphical controls, such as a Timer, return False.
	#END
	Method HasGraphicalInterface:Bool() property
		Return True
	end

	#Rem monkeydoc
		This method returns the client area location on the current mojo canvas. That is, the canvas X and Y location of the control contents.
		Notice that this information is based on latest known render location, and it will be updated on every frame.
	 #END
	Method ClientLocation:GuiVector2D()
		Local location:= New GuiVector2D
		ClientLocation(location)
		Return location
	End
	
	Method ClientLocation:Void(target:GuiVector2D)
		UnsafeRenderPosition().CloneHere(target)
		If ContainerControl(Self) Then
			Local container:= ContainerControl(Self)
			target.X += container.Padding.Left + container.ControlBordersSizes.Left
			target.Y += container.Padding.Top + container.ControlBordersSizes.Top
		EndIf
	End

	#Rem monkeydoc
		This method returns the client area size of the control on the current mojo canvas. That is, the width and height of the control.
	 #END
	Method ClientSize:GuiVector2D()
		Local size:= New GuiVector2D
		ClientSize(size)
		Return size
	End

	Method ClientSize(target:GuiVector2D)
		Size.CloneHere(target)
		If ContainerControl(Self) Then
			Local container:= ContainerControl(Self)
			target.X -= container.Padding.Left + container.Padding.Right + container.ControlBordersSizes.Left + container.ControlBordersSizes.Right
			target.Y -= container.Padding.Top + container.Padding.Bottom + container.ControlBordersSizes.Top + container.ControlBordersSizes.Bottom
		EndIf
	End
	
	#Rem monkeydoc
		This method returns the control location on the current mojo device. That is, the canvas X and Y location of the control location.
		This information is based on latest known render position of the control and it is updated once per frame.
	 #END
	Method LocationInDevice:GuiVector2D()
		Return UnsafeRenderPosition.Clone()
	End
	
	#Rem monkeydoc
		This method returns the control size on the current mojo device. That is, the canvas X and Y size of the control.
		While the Size property returns access to the direct Size vector, this proeprty is safer as it returns a clone of it.
	 #END
	Method SizeInDevice:GuiVector2D()
		Return Size.Clone()
	End

	
	#Rem monkeydoc
		Returs True if the control is currently the Gui focused control.
	 #END
	Method HasFocus:Bool()
		Return _gui._focusedControl = self
	End
	
	#Rem monkeydoc
		This property can be set to True or False in order to show or hide this control.
	 #END
	Method Visible:Bool() Property
		Return _visible
	End
	
	Method Visible:Void(value:Bool) Property
		If value <> _visible Then
			_visible = value
			Msg(New BoxedMsg(Self, eMsgKinds.VISIBLE_CHANGED))
		endif
	End

	#Rem monkeydoc
		This property alows you to get/set the text to be displayed as a control hint pop-up when the mouse is over the control.
	 #END
	Method TipText:Void(value:String) Property
		_tipText = value
	End
	
	Method TipText:String() Property
		Return _tipText
	End
		
	#Rem monkeydoc
		This is the color used to draw the control background when the mouse is over the control.
		Most controls have a default HooverColor that is defined into SystemColors, so modifying it in one control, could make the color to be modified also on any other controls using the same color instance for rendering.
	#End
	Method HooverColor:GuiColor() Property
		if _hooveColor <> null Then Return _hooveColor Else Return SystemColors.HooverBackgroundColor
	End
	
	Method HooverColor:GuiColor(value:GuiColor) Property
		_hooveColor = value
	End

	#Rem monkeydoc
		This property returns the color used to draw the control border (if any).
	 #END
	Method BorderColor:GuiColor() Property
		if _borderColor = Null then return SystemColors.ButtonBorderColor else Return _borderColor
	End

	Method BorderColor:GuiColor(value:GuiColor) Property
		If value <> Null Then
			_borderColor = value
		Else
			Throw New JungleGuiException("Border color can't be null.", Self)
		endif
	End

	#Rem monkeydoc
		summary: *Low level method* that deals with event signatures.
		This method is part of the internal core functionality of the control and should not be used on regular Jungle Gui coding.
		The Dispach method is internally used to convert low level messages to high level events. This method is automatically called by the internal Jungle Gui core engine whenever a message has been validated in all the message-parent-control chain and it hasn't been handled by any parent control.
		For more information, read the Jungle Gui wiki at googlecode here: [[http://code.google.com/p/junglegui/wiki/WelcomePage?tm=6|Jungle Gui wiki]].
	 #END
	Method Dispatch(msg:BoxedMsg)
		if Not _gui Then return
		Select msg.e.messageSignature
			Case eMsgKinds.BRING_TO_FRONT
				_bringToFront.RaiseEvent(msg.sender, msg.e)

				
			Case eMsgKinds.CHECKED_CHANGED	'Set on the checkbox control

			
			Case eMsgKinds.CLICK
				_eventClick.RaiseEvent(Self, MouseEventArgs(msg.e))

			Case eMsgKinds.GOT_FOCUS
				If _requiresVirtualKeyboard Then
					EnableKeyboard()
				Else
					DisableKeyboard()
				EndIf
				_gotFocus.RaiseEvent(Self, msg.e)
								
			Case eMsgKinds.INIT_FORM		'Set on TopLevel control

			
			Case eMsgKinds.KEY_DOWN
				_keyDown.RaiseEvent(msg.sender, KeyEventArgs(msg.e))
			Case eMsgKinds.KEY_PRESS
				_keyPress.RaiseEvent(msg.sender, KeyEventArgs(msg.e))
			Case eMsgKinds.KEY_UP
				_keyUp.RaiseEvent(msg.sender, KeyEventArgs(msg.e))
			Case eMsgKinds.LOST_FOCUS
				_lostFocus.RaiseEvent(msg.sender, msg.e)
			Case eMsgKinds.MOUSE_DOWN
				_mouseDown.RaiseEvent(msg.sender, MouseEventArgs(msg.e))
			Case eMsgKinds.MOUSE_MOVE
				_mouseMove.RaiseEvent(msg.sender, MouseEventArgs(msg.e))
			Case eMsgKinds.MOUSE_UP
				_mouseUp.RaiseEvent(msg.sender, MouseEventArgs(msg.e))
			Case eMsgKinds.MOUSE_ENTER
				_mouseEnter.RaiseEvent(msg.sender, msg.e)
			Case eMsgKinds.MOUSE_LEAVE
				_mouseLeave.RaiseEvent(msg.sender, msg.e)
			Case eMsgKinds.MOVED
				_moved.RaiseEvent(msg.sender, msg.e)
			Case eMsgKinds.PADDING_MODIFIED
				_paddingModified.RaiseEvent(msg.sender, msg.e)
			Case eMsgKinds.PARENT_REMOVED
				_parentRemoved.RaiseEvent(msg.sender, msg.e)
			Case eMsgKinds.PARENT_RESIZED
				_parentResized.RaiseEvent(msg.sender, msg.e)
			Case eMsgKinds.PARENT_SET
				_parentSet.RaiseEvent(msg.sender, msg.e)
			Case eMsgKinds.RESIZED
				_resized.RaiseEvent(msg.sender, msg.e)
			Case eMsgKinds.SEND_TO_BACK
				_sendToBack.RaiseEvent(msg.sender, msg.e)
				
			
			Case eMsgKinds.SLIDING_MAXIMUM_CHANGED	'PENDING: Has to be set on all slider controls
			
			Case eMsgKinds.SLIDING_VALUE_CHANGED
			
			Case eMsgKinds.TEXT_CHANGED	'Set on baselabel control

			Case eMsgKinds.TIMER_TICK	'Set on timer
			
			
			Case eMsgKinds.VISIBLE_CHANGED
				_visibleChanged.RaiseEvent(msg.sender, msg.e)
				
			Case eMsgKinds.INTERNAL_SCROLLCHANGED	'It has to be set on a ContainerControl
						
		End
	End
	
	#Rem monkeydoc
		monkeydoc This event is raised whenever the button is Clicked 
	#END
	Method Event_Click:EventHandler<MouseEventArgs>() Property; Return _eventClick; End
	#rem monkeydoc
		 This event is raised whenever the control is set a the top of its container Z-Order
	 #END
	Method Event_BringToFront:EventHandler<EventArgs>() Property; Return _bringToFront; end
	#rem monkeydoc
		This event is raised whenever the control gets the focus
	#END
	Method Event_GotFocus:EventHandler<EventArgs>() Property; Return _gotFocus; End
	#rem monkeydoc
		 This event is raised whenever a key is pressed down and the control has the focus.
	 #END
	Method Event_KeyDown:EventHandler<KeyEventArgs>() Property; Return _keyDown; End
	#rem monkeydoc
		This event is raised whenever a key stroke is completed and the control has the focus.
	 #END
	Method Event_KeyPress:EventHandler<KeyEventArgs>() Property; Return _keyPress; End
	#rem monkeydoc
		This event is raised whenever a key is raised up and the control has the focus.
	 #END
	Method Event_KeyUp:EventHandler<KeyEventArgs>() Property; Return _keyUp; End
	#rem monkeydoc
		This event is raised whenever the controls loses focus.
	 #END
	Method Event_LostFocus:EventHandler<EventArgs>() Property; Return _lostFocus; end
	#rem monkeydoc
		This event is raised whenever the mouse down button is pressed down over the control.
	#END
	Method Event_MouseDown:EventHandler<MouseEventArgs>() Property; Return _mouseDown; end
	#rem monkeydoc
		This event is raised whenever the mouse is moved over the control.
	#END
	Method Event_MouseMove:EventHandler<MouseEventArgs>() Property; Return _mouseMove; end
	#rem monkeydoc
		This event is raised whenever the mouse button is unpressed over the control.
	#END
	Method Event_MouseUp:EventHandler<MouseEventArgs>() Property; Return _mouseUp; end
	#rem monkeydoc
		This event is raised whenever the mouse pointer enters the control area.
	#END
	Method Event_MouseEnter:EventHandler<EventArgs>() Property; Return _mouseEnter; end
	#rem monkeydoc
		This event is raised whenever the mouse pointer leaves the control area.
	#END
	Method Event_MouseLeave:EventHandler<EventArgs>() Property; Return _mouseLeave; end
	#rem monkeydoc
		This event is raised whenever the control is moved from its parent-relative location.
	#END
	Method Event_Moved:EventHandler<EventArgs>() Property; Return _moved; end
	#rem monkeydoc
		This event is raised whenever the control padding is modified.
	#END
	Method Event_PaddingModified:EventHandler<EventArgs>() Property; Return _paddingModified; end
	#rem monkeydoc
		This event is raised whenever the control parent is removed.
	#END
	Method Event_ParentRemoved:EventHandler<EventArgs>() Property; Return _parentRemoved; end
	#rem monkeydoc
		This event is raised whenever the control parent is resized.<br>On TopLevelControls this indicates that the whole device canvas has been resized.
	#END
	Method Event_ParentResized:EventHandler<EventArgs>() Property; Return _parentResized; end
	#rem monkeydoc
		This event is raised whenever the control parent is set.
	#END
	Method Event_ParentSet:EventHandler<EventArgs>() Property; Return _parentSet; End
	#rem monkeydoc
		This event is raised whenever the control is sent to the bottom of its parent the Z-Order.
	#END
	Method Event_SendToBack:EventHandler<EventArgs>() Property; Return _sendToBack; end
	#rem monkeydoc
		This event is raised whenever the control visible property is modified.
	#END
	Method Event_VisibleChanged:EventHandler<EventArgs>() Property; Return _visibleChanged; end
	#rem monkeydoc
		This event is raised whenever the control is resized.
	#END
	Method Event_Resized:EventHandler<EventArgs>() Property; Return _resized; end
	
	#REM monkeydoc
		 This method returns the current state of the control. The result is an integer that can have any of the flags defined in eControlStatus.
		 Current available values are:
*  eControlStatus.FOCUSED
*  eControlStatus.HOOVER
*  eControlStatus.DISABLED
*  eControlStatus.NONE
	 #END
	Method Status:Int() Property
		Local status:Int = eControlStatus.NONE
		if _gui.ActiveControl = Self Then status = status | eControlStatus.FOCUSED
		if _gui.GetMousePointedControl = Self Then status = status | eControlStatus.HOOVER
		Return status
	End
	
	Method Pointer:Void(mousePointer:Int) Property
		_pointer = mousePointer
	End
	
	Method Pointer:Int() Property
		Return _pointer
	End
	
	#Rem monkeydoc
		This get/set Property indicates that this control should show the virtual keyboard when it gets focus.
	 #END
	Method RequiresVirtualKeyboard:Bool() Property
		Return _requiresVirtualKeyboard
	End

	Method RequiresVirtualKeyboard:Void(value:Bool) Property
		_requiresVirtualKeyboard = value
	End
	
	'Method LowLevelMsgListeners:List<MsgListener>()
		
	'End
	
	Method RegisterMsgListener(listener:MsgListener)
		If listeners = Null Then listeners = New List<MsgListener>
		listeners.AddLast(listener)
		listener.Register(Self)
	End
	
	Method UnRegisterMsgListener(listener:MsgListener)
		If listeners = Null Then Return
		If listeners.IsEmpty Then Return
		listeners.RemoveEach(listener)
		If listeners.IsEmpty Then listeners = Null
		listener.UnRegister(Self)
	End
	Private

	Field listeners:List<MsgListener>
	Method NotifyMsgListeners(msg:BoxedMsg)
		If listeners = Null Then Return
		If listeners.IsEmpty Then Return
		For Local msgl:MsgListener = EachIn listeners
			msgl.Msg(msg)
		Next
	End
	
'INTERNAL EVENT HANDLERS:
	Field _eventClick:= New EventHandler<MouseEventArgs>
	Field _bringToFront:= New EventHandler<EventArgs>
	Field _gotFocus:= New EventHandler<EventArgs>
	Field _keyDown:= New EventHandler<KeyEventArgs>
	Field _keyPress:= New EventHandler<KeyEventArgs>
	Field _keyUp:= New EventHandler<KeyEventArgs>
	Field _lostFocus:= New EventHandler<EventArgs>
	Field _mouseDown:= New EventHandler<MouseEventArgs>
	Field _mouseMove:= New EventHandler<MouseEventArgs>
	Field _mouseUp:= New EventHandler<MouseEventArgs>
	Field _mouseEnter:= New EventHandler<EventArgs>
	Field _mouseLeave:= New EventHandler<EventArgs>
	Field _moved:= New EventHandler<EventArgs>
	Field _paddingModified:= New EventHandler<EventArgs>
	Field _parentRemoved:= New EventHandler<EventArgs>
	Field _parentResized:= New EventHandler<EventArgs>
	Field _parentSet:= New EventHandler<EventArgs>
	Field _sendToBack:= New EventHandler<EventArgs>
	Field _visibleChanged:= New EventHandler<EventArgs>
	Field _resized:= New EventHandler<EventArgs>
		
'OTHER PRIVATES:	
	Field _tipText:String
	Field _visible:Bool = True
	Field _requiresVirtualKeyboard:Bool = False
	Field _outOfView
	
	Field _lastRenderPos:= New GuiVector2D
	
	Method StorePos()
		_gui.currentRenderPos.CloneHere(_lastRenderPos)
	End
	
	Method AddRenderPos()
		_gui.currentRenderPos.X += Position.X
		_gui.currentRenderPos.Y += Position.Y
		StorePos()
	End
	
	Field _vp_focusChecks:ViewPort = New ViewPort
	Field _vp_focusChecks2:ViewPort = New ViewPort
	
	
	Method _FocusChecks()
		
		If Self.Visible = False Then Return
		if Self.HasGraphicalInterface = False Then return
		
		if _gui = null Then
			return
		EndIf
		'RefreshRenderPosition()
		
		Local viewPort:= _vp_focusChecks 'new ViewPort
		'Ponemos los valores del control
		viewPort.SetValuesFromControl(Self)
		
		'Los ajustamos al viewport padre:
		If _gui.viewPortStack.IsEmpty = False Then viewPort = viewPort.Calculate(_gui.viewPortStack.Top(), viewPort)
			
		'Añadimos el viewport a la cola:
		_gui.viewPortStack.Push(viewPort)
		If _gui._mousePos = Null Then _gui._mousePos = New GuiVector2D'(0, 0)
		If HasGraphicalInterface and _outOfView = False Then 	'And is visible
			if _gui._mousePos.X>= viewPort.position.X And _gui._mousePos.X<= (viewPort.position.X + viewPort.size.X) Then
				If _gui._mousePos.Y >= viewPort.position.Y And _gui._mousePos.Y <= (viewPort.position.Y + viewPort.size.Y) Then
					
					If _gui._mouseControl <> Self Then _gui._mouseControl = Self
					If Self.Pointer <> eMouse.Auto Then _gui._pointer = Self.Pointer
				End
			End
		endif
		
		If Self.IsContainer and _outOfView = False Then
			Local container:= ContainerControl(Self)
			viewPort = _vp_focusChecks2  'New ViewPort
			viewPort.SetValuesFromControl(container, container.Padding, container.ControlBordersSizes)
			viewPort = viewPort.Calculate(_gui.viewPortStack.Top(), viewPort)
			_gui.viewPortStack.Push(viewPort)
			For Local c:Control = EachIn container.controls
				If c._outOfView = False Then c._FocusChecks()
			Next
			_gui.viewPortStack.Pop()	'eliminamos el post-padding
		EndIf
	
		_gui.viewPortStack.Pop()	'eliminamos el borde del control
	
	End
	
	Method _InformGui(gui:Gui)
		_gui = gui
	End
		
	Method _NavigationGotFocus()
		AssignFocus()
		
	End
	
	Field _GuiVector2D:ControlGuiVector2D = New ControlGuiVector2D
	Field _parentControl:ContainerControl 
	Field _drawingSize:ControlGuiVector2D = New ControlGuiVector2D
	Field _backgroundColor:GuiColor = SystemColors.ControlFace 'new GuiColor(1,170,170,170)
	Field _foreColor:GuiColor = SystemColors.WindowTextForeColor
	Global _htmlforecolor:GuiColor = New GuiColor(1, 255, 255, 255)
	Field _gui:Gui 
	Field _tabStop:Bool = true
	Field _name:String = ""
	'Cache items:
	'Field _cacheRenderPosCalcuation:GuiVector2D
	Field _hooveColor:GuiColor = Null
	Field _borderColor:GuiColor = Null
	
	Field _pointer:Int = eMouse.Auto
	
End

#Rem monkeydoc 
	This is the ContainerControl class, that extends the Control class.
	All controls that can contain other controls extend this class.
#End
Class ContainerControl Extends Control

	'summary: This is a Get/Set property that is useful to set the control container internal Padding space.
	Method Padding:Padding() Property
		Return _padding
	End
	
	Method ControlBordersSizes:Padding() Property
		Return _borderPadding
	End
	
	'note: TODO: Calculate scrolling here when requested
	Method DeviceToControlX:Float(x:float)
		Return x - UnsafeRenderPosition.X - Padding.Left - ControlBordersSizes.Left + Self.internalScroll.X		
	End
	
	Method DeviceToControlY:Float(y:Float)
		Return y - UnsafeRenderPosition.Y - Padding.Top - ControlBordersSizes.Top + Self.internalScroll.Y
	End
	
	Method ControlToDeviceX:Float(x:Float)